Circuit: * C:\Users\RISHIVEER YADAV\OneDrive\Desktop\LTSpice\Lab Work and Projects\Project -2 (Boost Converter Circuit)\Boost Converter Circuit.asc

Limiting rise time of source v2 to 4.17e-07
Limiting fall time of source v2 to 4.17e-07
Direct Newton iteration for .op point succeeded.

Date: Wed Mar 27 14:56:53 2024
Total elapsed time: 2.823 seconds.

tnom = 27
temp = 27
method = modified trap
totiter = 532353
traniter = 532343
tranpoints = 204685
accept = 146173
rejected = 58512
matrix size = 11
fillins = 1
solver = Normal
Avg thread counts: 1.0/1.0/1.0/1.0
Matrix Compiler1: 512 bytes object code size  0.3/0.3/[0.2]
Matrix Compiler2: 793 bytes object code size  0.2/0.3/[0.2]

