Circuit: * C:\Users\RISHIVEER YADAV\OneDrive\Desktop\LTSpice\Lab Work and Projects\Project - 1 (Audio Amplifier)\2N7000.asc

Direct Newton iteration for .op point succeeded.

Date: Fri Feb  2 10:40:47 2024
Total elapsed time: 0.148 seconds.

tnom = 27
temp = 27
method = modified trap
totiter = 2051
traniter = 2034
tranpoints = 1018
accept = 1018
rejected = 0
matrix size = 16
fillins = 4
solver = Normal
Avg thread counts: 2.3/3.7/3.7/2.3
Matrix Compiler1: 976 bytes object code size  0.5/0.4/[0.3]
Matrix Compiler2: off  [0.4]/0.5/0.4

