Circuit: * C:\Users\RISHIVEER YADAV\OneDrive\Desktop\LTSpice\Lab Work and Projects\Project - 1 (Audio Amplifier)\Draft1.asc

Warning: Multiple definitions of model "2scr375p" Type: BJT
Warning: Multiple definitions of model "bc857b" Type: BJT
Warning: Multiple definitions of model "bc847c" Type: BJT
Warning: Multiple definitions of model "bc847b" Type: BJT
Direct Newton iteration for .op point succeeded.

Date: Mon Mar  4 23:48:21 2024
Total elapsed time: 0.060 seconds.

tnom = 27
temp = 27
method = modified trap
totiter = 2088
traniter = 2082
tranpoints = 1042
accept = 1042
rejected = 0
matrix size = 15
fillins = 0
solver = Normal
Avg thread counts: 2.3/3.6/3.6/2.3
Matrix Compiler1: 774 bytes object code size  0.3/0.2/[0.2]
Matrix Compiler2: 1.13 KB object code size  0.2/0.2/[0.1]

