Circuit: * C:\Users\RISHIVEER YADAV\OneDrive\Desktop\LTSpice\Lab Work and Projects\Project - 1 (Audio Amplifier)\Ultimate Design.asc

Warning: Multiple definitions of model "2scr375p" Type: BJT
Warning: Multiple definitions of model "bc857b" Type: BJT
Warning: Multiple definitions of model "bc847c" Type: BJT
Warning: Multiple definitions of model "bc847b" Type: BJT
WARNING: Node N007 is floating.
WARNING: Node N010 is floating.

WARNING: Less than two connections to node n010.  This node is used by c6.
Direct Newton iteration for .op point succeeded.

Date: Tue Mar  5 11:59:13 2024
Total elapsed time: 0.068 seconds.

tnom = 27
temp = 27
method = trap
totiter = 7
traniter = 0
tranpoints = 0
accept = 0
rejected = 0
matrix size = 38
fillins = 16
solver = Normal
Avg thread counts: 8.0/0.0/8.0/8.0
Matrix Compiler1:     186 opcodes
Matrix Compiler2: 3.61 KB object code size
